iidm/iidm-serde/src/test/resources/V1_12/areaRoundTripRef.xml
<?xml version="1.0" encoding="UTF-8"?>
<iidm:network xmlns:iidm="http://www.powsybl.org/schema/iidm/1_12" id="test" caseDate="2020-03-04T13:20:30.476+01:00" forecastDistance="0" sourceFormat="test" minimumValidationLevel="STEADY_STATE_HYPOTHESIS">
    <iidm:network id="sub" caseDate="2020-03-04T13:20:30.476+01:00" forecastDistance="0" sourceFormat="format" minimumValidationLevel="STEADY_STATE_HYPOTHESIS">
        <iidm:substation id="sub3">
            <iidm:voltageLevel id="VL2" nominalV="1.0" topologyKind="BUS_BREAKER">
                <iidm:busBreakerTopology>
                    <iidm:bus id="N3"/>
                </iidm:busBreakerTopology>
            </iidm:voltageLevel>
        </iidm:substation>
    </iidm:network>
    <iidm:substation id="sub1">
        <iidm:voltageLevel id="VL1" nominalV="1.0" topologyKind="BUS_BREAKER">
            <iidm:busBreakerTopology>
                <iidm:bus id="N1"/>
                <iidm:bus id="N2"/>
            </iidm:busBreakerTopology>
            <iidm:load id="L1" loadType="UNDEFINED" p0="0.0" q0="0.0" bus="N1" connectableBus="N1"/>
            <iidm:danglingLine id="DL1" p0="0.0" q0="0.0" r="0.0" x="0.0" g="0.0" b="0.0" bus="N2" connectableBus="N2"/>
        </iidm:voltageLevel>
    </iidm:substation>
    <iidm:substation id="sub2"/>
    <iidm:line id="Line1" r="0.0" x="0.0" g1="0.0" b1="0.0" g2="0.0" b2="0.0" voltageLevelId1="VL1" bus1="N1" connectableBus1="N1" voltageLevelId2="VL1" bus2="N2" connectableBus2="N2"/>
</iidm:network>
